version 2
run nodebug-0-20170926-16:21:59-19151
attr configname nodebug
attr datetime 20170926-16:21:59
attr experiment nodebug
attr inifile omnetpp.ini
attr iterationvars ""
attr iterationvars2 $repetition=0
attr measurement ""
attr network RSUExampleScenario
attr processid 19151
attr repetition 0
attr replication #0
attr resultdir results
attr runnumber 0
attr seedset 0

