version 2
run VehNumber_150-4-20171005-23:32:31-24356
attr configname VehNumber_150
attr datetime 20171005-23:32:31
attr experiment VehNumber_150
attr inifile omnetpp.ini
attr iterationvars ""
attr iterationvars2 $repetition=4
attr measurement ""
attr network RSUExampleScenario
attr processid 24356
attr repetition 4
attr replication #4
attr resultdir results
attr runnumber 4
attr seedset 4

