version 2
run VehNumber_150-2-20171004-15:53:24-14189
attr configname VehNumber_150
attr datetime 20171004-15:53:24
attr experiment VehNumber_150
attr inifile omnetpp.ini
attr iterationvars ""
attr iterationvars2 $repetition=2
attr measurement ""
attr network RSUExampleScenario
attr processid 14189
attr repetition 2
attr replication #2
attr resultdir results
attr runnumber 2
attr seedset 2

