version 2
run VehNumber_450-1-20171004-10:53:06-12971
attr configname VehNumber_450
attr datetime 20171004-10:53:06
attr experiment VehNumber_450
attr inifile omnetpp.ini
attr iterationvars ""
attr iterationvars2 $repetition=1
attr measurement ""
attr network RSUExampleScenario
attr processid 12971
attr repetition 1
attr replication #1
attr resultdir results
attr runnumber 1
attr seedset 1

